! wB97X-D3  RKS TightSCF SlowConv
! PrintBasis 6-311++G**
! Opt NumFreq
 %maxcore 1000
 %pal
nprocs 20
end
%scf
MaxIter 500
end
%geom
NumHess true
end
* xyz -2   1
B        -1.354206464875      1.673466723671     -1.285482188580
B        -2.518959464875      1.783131723671      0.062725811420
B         0.041752535125      2.715212723671     -0.893485188580
B        -1.212265464875      3.289226723671     -2.022633188580
B        -2.794108464875      2.712846723671     -1.431511188580
B        -0.768764464875      1.787280723671      0.394626811420
B        -3.096670464875      3.465863723671      0.158334811420
B        -1.843555464875      2.891810723671      1.288382811420
B        -0.536708464875      4.397557723671     -0.797370188580
B        -0.260846464875      3.468582723671      0.697157811420
B        -2.288505464875      4.396684723671     -1.131021188580
B        -1.701162464875      4.507111723671      0.550292811420
F        -0.130852464875      0.689807723671      1.036328811420
F        -3.347652981764      0.687839764260      0.423284514982
F         0.713564805098      3.732726256033      1.516151627795
F         0.291536560763      5.493279640750     -1.157652935796
F        -1.834933123200      5.594062744525      1.250751867495
F        -2.923328954068      5.493772602898     -1.771175328474
F        -4.410099588278      3.781185743087      0.596371296051
F        -3.854897219775      2.396338261638     -2.320864667765
F        -2.089591092444      2.700426161022      2.673748618398
F         1.355879175686      2.378840706502     -1.313395939378
F        -0.950200104821      3.458921847752     -3.407885985698
F        -1.196226310470      0.474389658244     -2.029563139808
*  